<?xml version="1.0"?>

<routes> <!-- The opening tag -->

   <!-- Vehicle types -->
   <vType id="passenger" length="5.0" width="2.0" maxSpeed="70.0" accel="2.6" decel="4.5" sigma="0.5"/>

   <!-- Routes + associated vehicles & flows -->
   <route id="trip-0" color="Orange" edges="-24239164#5 24239164#4 24239164#6 -562901656 -12853074#3 -12853074#2 -12853074#1 42899134#0 921231874#0 12855245#0 42465507#0 42465507#1 33720595#0 33720596#0 33720596#2 33720596#4 33720596#5 -33720382#1 203032337#0 42467085#0 1101792380#0 3511616#0 3511616#1 3511616#2 203633543#0 203633543#1 24041616 24041615#0 157061628#0 157061628#1 157061628#6 25665906#0 1267506478#0 689185463#0 689185463#1 689185463#2 689185463#3 689185463#4 689185463#5 689185463#6 3994824#0 229612938#2 203794617#0 43155285 203633551 34639887 203792892#0 145816660 203792894 1252236653 173587175#0 1252236657#0 1252236654 -1032874022#17 -1032874022#13 -1032874022#12 -1032874022#11 -1032874022#10 4335660#0 4335660#1 -4335687#11 -4335687#10 -4335687#9 -4335687#8 -4335687#7 -4335687#6 -4335687#5 -4335687#4 -4335687#3 -4335687#2 -4335687#1 -4335687#0 4333682#0 4333682#2 4333682#3 4333682#5 4333682#6 4333693#0 -4333693#0"/>
   <vehicle id="vehicle-0" type="passenger" color="Red" depart="0.0" route="trip-0"/>
   <vehicle id="vehicle-10" type="passenger" color="Red" depart="0.1" route="trip-0"/>

   <route id="trip-1" color="Orange" edges="3511574 20342193#0 20342193#2 22634256#0 822239565 563963278#0 33720055 189600038 203022642 202761610#0 1101792380#0 3511616#0 3511616#1 3511616#2 203633543#0 203633543#1 24041616 24041615#0 157061628#0 157061628#1 157061628#6 25665906#0 761691771#0 37354502#0 37354502#1 492761561#0 34639899 254347228 203009201#1 189600034#2 32846152 727263615#0 727263614#0 1201151042#0 3994822#0 3994822#1 530791535#0 4435373#0 4435373#2 -4435373#3"/>
   <vehicle id="vehicle-1" type="passenger" color="Red" depart="0.01" route="trip-1"/>
   <vehicle id="vehicle-11" type="passenger" color="Red" depart="0.11" route="trip-1"/>

   <route id="trip-2" color="Orange" edges="25684204#2 -846213770#1 -846213770#0 -4340891#5 -4340891#4 -4340891#3 387174307 177745464#0 177745464#1 -1241386176 1241386177 -1206296893 387174301#0 387174301#1 387174301#2 31753907#1 34639897#0 -121381303#4 -121381303#3 -121381303#2 -121381303#1 -121381303#0 4468503#0 4468503#2 3994825 248853632#0 248853632#3 121389308#0 121389308#2 3445490#0 1023250996 1149252658 229984482 39020137#0 761691770#0 3526941#0 3526941#2 3526941#3 3526941#6 3526941#8 24041618#1 24041617#0 24041617#1 24041617#2 203154877 33720055 189600038 203022642 203105136#0 202761563 33720382#0 692109498#0 42899133#0 42899133#1 42899133#3 42899133#5 42899134#0 921231874#0 12855245#0 42465507#0 42465507#1 42465508 3509748#0 3509748#1 107585045#0 -107296515#4"/>
   <vehicle id="vehicle-2" type="passenger" color="Red" depart="0.02" route="trip-2"/>
   <vehicle id="vehicle-12" type="passenger" color="Red" depart="0.12" route="trip-2"/>

   <route id="trip-3" color="Orange" edges="154676287#5 154676287#6 23695001 -671732666#7 -671732666#6 -671732666#4 -671732666#3 -671732666#2 -671732666#0 1278622416#0 4333485#0 4333485#1 4333485#2 4333485#3 145816663#0 145816663#3 8393336#0 8393336#1 8393336#2 8393336#5 -184299810#4 -184299810#3 -184299810#2 -184299810#1 -575716607#1 -463406403#1 8393337#0 8393337#1 126355312#0 34639888#0 34639888#1 3994825 248853632#0 248853632#3 121389308#0 121389308#2 202760228#6 3512363#0 3512363#3 25661566 -22633678#5"/>
   <vehicle id="vehicle-3" type="passenger" color="Red" depart="0.03" route="trip-3"/>
   <vehicle id="vehicle-13" type="passenger" color="Red" depart="0.13" route="trip-3"/>

   <route id="trip-4" color="Orange" edges="156201905#1 156201905#2 156201905#3 -156195817#4 -156195817#2 -34639891#4 -34639891#2 -3994822#2 -3994822#0 -1201151042#1 727263614#1 727263614#4 727263614#5 121381306#0 203792892#0 126355312#0"/>
   <vehicle id="vehicle-4" type="passenger" color="Red" depart="0.04" route="trip-4"/>
   <vehicle id="vehicle-14" type="passenger" color="Red" depart="0.14" route="trip-4"/>

   <route id="trip-5" color="Orange" edges="-41554114#0 -4315795#5 -4315795#4 -4315795#3 -4315795#2 -4315795#1 -4315795#0 -949386963#1 39020684#0 293529922#0 -159956816 -3552302#3 -3552302#2 -3552302#0 -4311882 299755621#1 299755621#2 299755621#3 670058037 686430349 -686430350 -712126725 -562883780 -484626175#1 -57018566#1 -173587172#3 -37281237#4 -37281237#3 -37281237#2 -22633672#1 388091412 -3445574#1 833466869 230199380#0 230199379#0 1252323503#0 1252323503#2 -191318878#5 -191318878#3 -191318878#1 -191318878#0 3445575#0 -571478237#3 -571478237#2 -571478237#1 -571478237#0 478179927 25665955#0 25665906#0 761691771#0 37354502#0 37354502#1 492761561#0 34639899 254347228 4264144#0 4264144#2 4264144#3 32846150 128539419#0 128539419#1 260638282 492761559 224523813 107483716#0 458390142#0 376277306#0 376277306#1 156201908#0 -156201908#1 57018804#0 765244218 -764877315#6 203794636#0 -156201902#2 -156201902#1 -156195815#2"/>
   <vehicle id="vehicle-5" type="passenger" color="Red" depart="0.05" route="trip-5"/>
   <vehicle id="vehicle-15" type="passenger" color="Red" depart="0.15" route="trip-5"/>

   <route id="trip-6" color="Orange" edges="203794616 -203794616 -40453202#1 156201905#1 156201905#2 156201905#3 -156195817#4 -156195817#2 -34639891#4 -34639891#2 -3994822#2 -3994822#0 -1201151042#1 727263614#1 727263614#4 727263614#5 121381306#0 180662477#0 34639888#0 34639888#1 39247869 43155285 121381313 121381302#0 -248853633 248853633"/>
   <vehicle id="vehicle-6" type="passenger" color="Red" depart="0.06" route="trip-6"/>
   <vehicle id="vehicle-16" type="passenger" color="Red" depart="0.16" route="trip-6"/>

   <route id="trip-7" color="Orange" edges="846213770#1 -846213770#1 -846213770#0 -4340891#5 -4340891#4 -4340891#3 387174307 177745464#0 177745464#1 -1241386176 1241386177 -1206296893 387174301#0 387174301#1 387174301#2 31753907#1 34639897#0 -121381303#4 -121381303#3 -121381303#2 -121381303#1 -121381303#0 4468503#0 4468503#2 3994825 248853632#0 248853632#3 121389308#0 121389308#2 3445490#0 1023250996 1149252658 229984482 39020137#0 761691770#0 3526941#0 3526941#2 3526941#3 3526941#6 3526941#8 24041618#1 24041617#0 24041617#1 24041617#2 203154877 3511574 20342193#0 20342193#2 22634256#0 822239565"/>
   <vehicle id="vehicle-7" type="passenger" color="Red" depart="0.07" route="trip-7"/>
   <vehicle id="vehicle-17" type="passenger" color="Red" depart="0.17" route="trip-7"/>

   <route id="trip-8" color="Orange" edges="436786748#0 -436786748#1 436786747#0 718083948#0 718083948#2 436786743 37283282#0 -250047661 3730254#0 3730254#2 3730254#3 3730254#4 250047659#0 -230108676 -230108677#3 -230108677#1 -816806804#1 -3730325#0 431578441#0 4002730#0 37281216#0 -686430348 -686430350 -712126725 -562883780 -484626175#1 -57018566#1 -173587172#3 -37281237#4 -37281237#3 -37281237#2 -22633672#1 388091412 -3445574#1 833466869 230199380#0 230199379#0 1252323503#0 3512366#1 309658474#0 309658474#1 309658474#4 728220846 372255096 3511572 729197255#0 24041617#2 203154877 33720055 189600038 203022642 203105136#0 202761563 33720382#0 289799816#0 289799816#2 4756798#0 4019479#0 4019479#1 4019479#2 107585047 24041785#2 -24041797#4 -24041797#3 -24041797#2 -24041797#1 -24041797#0 -405210810#5 -405210810#4 -405210810#2 3567398#0 3567398#1 1004031462 3567399#1 405210839#1 405210839#2 203117012#0 -24042967#6 -107801370#1"/>
   <vehicle id="vehicle-8" type="passenger" color="Red" depart="0.08" route="trip-8"/>
   <vehicle id="vehicle-18" type="passenger" color="Red" depart="0.18" route="trip-8"/>

   <route id="trip-9" color="Orange" edges="69323241#0 -69323241#0 4301893#1 -4319754#3 -4319754#2 -4319754#1 328876544#2 328876544#3 328876544#4 328876544#5 4293780#1 4293780#3 4296501#0 4296501#1 4296501#2 4296502#3 69590803#0 157254344#0 157254344#2 -37032049 157254344#6 1204946259#0 4002664#0 25683828#1 106759141 4067398 279444018#0 27429948 83535895#1 25691267#0 -25683723#1 25684204#0 25684204#2 -846213770#1 -846213770#0 -4340891#5 -4340891#4 -4340891#3 387174307 177745464#0 177745464#1 -1241386176 1241386177 -1206296893 387174301#0 -387174301#0"/>
   <vehicle id="vehicle-9" type="passenger" color="Red" depart="0.09" route="trip-9"/>
   <vehicle id="vehicle-19" type="passenger" color="Red" depart="0.19" route="trip-9"/>

</routes> <!-- The closing tag -->
