<?xml version="1.0" encoding="UTF-8"?>

<!-- generated on 2024-10-17 22:22:40 by Eclipse SUMO polyconvert Version 1.21.0
<polyconvertConfiguration xmlns:xsi="http://www.w3.org/2001/XMLSchema-instance" xsi:noNamespaceSchemaLocation="http://sumo.dlr.de/xsd/polyconvertConfiguration.xsd">

    <input>
        <net-file value=".\map_filter_upgrade_traffic.net.xml"/>
        <osm-files value=".\map.osm"/>
        <type-file value=".\typemap.xml"/>
    </input>

    <output>
        <output-file value="map.poly.xml"/>
    </output>

</polyconvertConfiguration>
-->

<additional xmlns:xsi="http://www.w3.org/2001/XMLSchema-instance" xsi:noNamespaceSchemaLocation="http://sumo.dlr.de/xsd/additional_file.xsd">
    <location netOffset="-309150.49,-4153648.38" convBoundary="-18255.13,-24015.92,41559.67,30460.30" origBoundary="126.638099,37.293387,127.310514,37.780960" projParameter="+proj=utm +zone=52 +ellps=WGS84 +datum=WGS84 +units=m +no_defs"/>

    <poly id="1001334723" type="unknown" color="51,128,255" fill="0" layer="-1.00" shape="7375.819971,1091.556603 7387.579993,1094.749553 7399.092675,1095.150373 7408.390546,1093.757236 7418.150093,1089.645125"/>
    <poly id="1001334724" type="unknown" color="51,128,255" fill="0" layer="-1.00" shape="7375.819971,1091.556603 7401.909252,1111.385355"/>
    <poly id="1001334725" type="unknown" color="51,128,255" fill="0" layer="-1.00" shape="7362.213353,1081.221702 7375.819971,1091.556603"/>
    <poly id="1010481029" type="unknown" color="51,128,255" fill="0" layer="-1.00" shape="7357.562907,1102.872623 7193.069524,1324.498203 7188.714408,1327.880550 7182.503400,1329.705289 7176.339570,1329.264257 7171.318543,1326.921791 7093.561050,1270.535102"/>
    <poly id="1010481030" type="unknown" color="51,128,255" fill="1" layer="-1.00" shape="7694.244359,1504.926959 7677.946758,1526.889953 7601.294571,1630.204307 7596.254831,1633.412816 7590.757394,1634.710847 7585.097780,1634.669164 7580.159045,1632.435668 7456.717621,1539.807835 7425.879232,1516.664532 7278.971876,1407.815971 7275.646114,1402.960329 7273.847060,1397.971041 7273.563672,1392.748437 7274.793735,1387.592309 7277.225995,1381.621404 7317.395921,1327.213077 7338.042470,1298.403514 7341.379153,1293.744853 7365.396712,1260.220445 7382.137030,1237.092487 7428.775801,1172.039843 7436.280125,1167.910921 7444.449072,1167.453070 7451.708874,1168.269775 7528.990455,1226.812821 7612.817407,1290.318914 7654.064786,1321.559611 7672.633712,1335.626700 7690.105540,1348.863188 7750.955177,1394.959129 7754.322431,1399.303357 7757.914045,1406.606767 7758.519754,1414.031483 7753.959815,1422.169517 7694.244359,1504.926959"/>
    <poly id="1010481031" type="unknown" color="51,128,255" fill="0" layer="-1.00" shape="7380.138260,1235.871037 7380.021198,1234.974391 7399.667741,1207.708013 7400.515687,1207.667089"/>
    <poly id="1010481032" type="unknown" color="51,128,255" fill="0" layer="-1.00" shape="7400.515687,1207.667089 7380.138260,1235.871037"/>
    <poly id="1010481033" type="unknown" color="51,128,255" fill="0" layer="-1.00" shape="7380.138260,1235.871037 7382.137030,1237.092487"/>
    <poly id="1010481034" type="unknown" color="51,128,255" fill="0" layer="-1.00" shape="7092.204674,1272.374665 7170.153642,1329.023548 7175.647483,1331.555391 7180.902004,1332.060929 7185.125475,1331.523505 7191.189437,1329.446680 7195.040056,1326.441839 7355.909765,1113.300239"/>
    <poly id="1010481035" type="unknown" color="51,128,255" fill="0" layer="-1.00" shape="7317.395921,1327.213077 7313.046523,1327.253642 7274.294404,1379.399240 7272.041118,1385.066447 7271.597330,1391.393077 7271.296241,1395.374112 7273.339471,1403.410951 7276.533637,1408.713565 7277.613279,1409.555638 7424.410882,1518.639731 7455.302784,1541.804051 7580.441392,1635.615601 7585.054906,1637.134666 7590.253260,1637.108812 7593.074404,1636.336081 7597.037802,1635.238412 7602.605583,1631.918343 7679.907586,1528.400947 7696.294053,1506.458201 7757.410927,1424.702340 7762.673722,1416.360092 7762.994955,1409.270201 7760.004692,1400.366011 7754.775037,1391.755405 7693.129092,1344.833270 7675.656038,1331.541294 7657.175486,1317.472250 7615.987763,1286.130307 7532.253363,1222.411209 7456.372770,1164.847458 7448.985953,1161.080524 7440.551190,1160.311959 7432.637006,1161.896554 7427.654483,1164.904057 7360.570187,1256.674596"/>
    <poly id="1010481036" type="unknown" color="51,128,255" fill="0" layer="-1.00" shape="7242.073143,1370.952361 7248.699822,1375.535221 7271.597330,1391.393077 7273.563672,1392.748437"/>
    <poly id="1010481037" type="unknown" color="51,128,255" fill="0" layer="-1.00" shape="7182.503400,1329.705289 7185.125475,1331.523505 7214.165105,1351.630593 7224.410555,1358.720136"/>
    <poly id="1010481038" type="unknown" color="51,128,255" fill="0" layer="-1.00" shape="7224.410555,1358.720136 7242.073143,1370.952361"/>
    <poly id="1010481039" type="unknown" color="51,128,255" fill="0" layer="-1.00" shape="7180.902004,1332.060929 7211.204186,1353.283566 7246.742203,1378.176260 7271.296241,1395.374112"/>
    <poly id="1010481040" type="unknown" color="51,128,255" fill="0" layer="-1.00" shape="7175.625516,1434.556829 7201.329625,1454.182511 7375.354184,1587.009828"/>
    <poly id="1010481041" type="unknown" color="51,128,255" fill="0" layer="-1.00" shape="7407.032790,1609.768035 7373.659026,1589.123267 7199.335955,1456.791056 7173.508366,1437.179211 7075.557085,1362.821554 6988.584551,1296.792483"/>
    <poly id="1010481042" type="unknown" color="51,128,255" fill="0" layer="-1.00" shape="7175.625516,1434.556829 7077.687730,1360.010121 6991.115833,1294.105381"/>
    <poly id="1010481043" type="unknown" color="51,128,255" fill="0" layer="-1.00" shape="7234.827458,1410.378940 7261.982832,1429.661888"/>
    <poly id="1010481044" type="unknown" color="51,128,255" fill="0" layer="-1.00" shape="7234.827458,1410.378940 7226.543125,1421.208483 7214.537817,1436.905079 7201.329625,1454.182511 7199.335955,1456.791056"/>
    <poly id="1010481045" type="unknown" color="51,128,255" fill="0" layer="-1.00" shape="7278.971876,1407.815971 7277.613279,1409.555638 7271.964823,1416.829884 7261.982832,1429.661888"/>
    <poly id="1010481046" type="unknown" color="51,128,255" fill="0" layer="-1.00" shape="7363.623496,1260.403923 7340.230763,1292.993102"/>
    <poly id="1010481047" type="unknown" color="51,128,255" fill="0" layer="-1.00" shape="7340.230763,1292.993102 7341.379153,1293.744853"/>
    <poly id="1013935224" type="unknown" color="51,128,255" fill="0" layer="-1.00" shape="7943.695245,1531.270990 7820.099508,1440.328772 7815.029279,1439.352511 7808.710032,1440.679593 7803.342826,1444.283733 7773.237906,1484.890540 7639.555085,1665.196466 7638.485781,1668.428410 7638.251191,1670.620599 7638.572508,1674.365854 7640.283493,1678.180379 7643.451172,1681.896171 7763.092680,1772.800730"/>
    <poly id="1013935225" type="unknown" color="51,128,255" fill="0" layer="-1.00" shape="7942.285152,1531.479658 7819.603229,1441.882825 7814.829812,1440.733501 7809.236472,1442.100099 7804.381152,1445.260000 7774.470901,1485.873616 7641.982125,1665.797940 7640.784852,1670.042950 7641.168519,1673.809034 7642.598938,1677.330003 7645.184632,1680.314823 7763.196240,1770.278386"/>
    <poly id="1013935226" type="unknown" color="51,128,255" fill="0" layer="-1.00" shape="7590.757394,1634.710847 7593.074404,1636.336081 7608.621833,1647.327893 7626.405457,1659.891248 7638.485781,1668.428410 7640.784852,1670.042950"/>
    <poly id="1013935227" type="unknown" color="51,128,255" fill="0" layer="-1.00" shape="7590.253260,1637.108812 7607.342261,1649.043559 7625.212300,1661.516193 7638.251191,1670.620599"/>
    <poly id="1021562396" type="unknown" color="51,128,255" fill="0" layer="-1.00" shape="8079.497763,1286.956688 8042.525623,1338.637397 7939.212254,1483.066730"/>
    <poly id="1021563058" type="unknown" color="51,128,255" fill="0" layer="-1.00" shape="7939.212254,1483.066730 7966.844483,1503.218395 8086.497884,1589.908661"/>
    <poly id="1021568289" type="unknown" color="51,128,255" fill="0" layer="-1.00" shape="8086.497884,1589.908661 8148.143897,1507.555826 8151.047288,1503.684147 8194.115041,1446.141493 8208.296844,1427.212429 8247.972324,1374.196397"/>
    <poly id="1021568290" type="unknown" color="51,128,255" fill="0" layer="-1.00" shape="8042.525623,1338.637397 8077.956565,1362.403491"/>
    <poly id="1021568291" type="unknown" color="51,128,255" fill="0" layer="-1.00" shape="8131.646168,1289.684205 8116.259879,1310.538247 8077.956565,1362.403491 8052.687695,1396.630421 7990.396301,1480.996441"/>
    <poly id="1021568292" type="unknown" color="51,128,255" fill="0" layer="-1.00" shape="8211.244868,1348.137885 8131.646168,1289.684205"/>
    <poly id="1021568293" type="unknown" color="51,128,255" fill="0" layer="-1.00" shape="8194.115041,1446.141493 8157.045609,1421.012173"/>
    <poly id="1021568294" type="unknown" color="51,128,255" fill="0" layer="-1.00" shape="8172.629423,1399.898517 8208.296844,1427.212429"/>
    <poly id="1021568295" type="unknown" color="51,128,255" fill="0" layer="-1.00" shape="8113.102780,1480.572551 8148.143897,1507.555826"/>
    <poly id="1021568296" type="unknown" color="51,128,255" fill="0" layer="-1.00" shape="8247.972324,1374.196397 8211.451119,1347.866914"/>
    <poly id="1021568297" type="unknown" color="51,128,255" fill="0" layer="-1.00" shape="8228.860465,1324.914805 8211.451119,1347.866914 8211.244868,1348.137885 8195.648901,1368.707746 8178.510972,1391.931509 8172.629423,1399.898517 8157.045609,1421.012173 8144.802099,1437.611786 8134.284238,1451.864348 8113.102780,1480.572551 8104.499912,1492.240781 8102.765494,1494.588055"/>
    <poly id="1021568298" type="unknown" color="51,128,255" fill="0" layer="-1.00" shape="8116.259879,1310.538247 8182.896746,1359.363043 8195.648901,1368.707746"/>
    <poly id="1021630675" type="unknown" color="51,128,255" fill="0" layer="-1.00" shape="8104.499912,1492.240781 8061.134031,1463.853296"/>
    <poly id="1021630676" type="unknown" color="51,128,255" fill="0" layer="-1.00" shape="8134.284238,1451.864348 8090.187635,1422.016268 8052.687695,1396.630421"/>
    <poly id="1021630677" type="unknown" color="51,128,255" fill="0" layer="-1.00" shape="8061.134031,1463.853296 8090.187635,1422.016268"/>
    <poly id="1021630678" type="unknown" color="51,128,255" fill="0" layer="-1.00" shape="8144.802099,1437.611786 8103.636707,1410.785412"/>
    <poly id="1021630679" type="unknown" color="51,128,255" fill="0" layer="-1.00" shape="8178.510972,1391.931509 8137.210966,1365.019111"/>
    <poly id="1023483169" type="unknown" color="51,128,255" fill="0" layer="-1.00" shape="7951.374736,1522.653633 7966.844483,1503.218395"/>
    <poly id="1026990127" type="unknown" color="51,128,255" fill="0" layer="-1.00" shape="9242.549411,2424.789955 9216.395901,2468.735368 9211.629096,2476.743874 9186.032457,2497.630522 9180.133973,2502.399962 9177.150516,2502.209885 9166.916677,2501.567822 9162.266951,2508.863304 9162.475332,2509.902286 9163.647404,2515.793745 9152.359462,2524.755352 9133.798568,2539.504557 9100.950796,2565.945472 9081.794705,2581.362818 8994.985295,2656.288871 8965.967608,2681.980422 8922.907452,2717.982148"/>
    <poly id="1026990253" type="unknown" color="51,128,255" fill="0" layer="-1.00" shape="9409.183737,2639.880624 9396.852255,2634.665899 9379.217432,2622.617539 9364.099639,2612.479174 9359.755299,2608.266730 9347.862894,2596.448197 9340.383464,2589.151453 9321.620415,2579.692305 9332.279141,2561.352828 9332.007487,2557.417738 9330.624787,2557.658885 9323.746872,2558.874949 9320.311849,2559.460694 9319.080094,2559.731848 9294.592576,2556.536998 9291.287881,2556.209584 9289.462116,2552.763628 9271.126422,2517.972747 9269.068955,2514.443048 9265.432879,2507.450893 9266.941195,2503.654513 9272.894257,2489.247852"/>
    <poly id="1027301105" type="unknown" color="51,128,255" fill="0" layer="-1.00" shape="9149.298102,2578.387058 9133.156946,2620.892597 9138.818691,2657.836637 9151.098600,2720.491285 9158.831582,2754.326008 9166.497176,2779.425327 9180.278078,2840.393048 9189.464416,2886.119012"/>
    <poly id="1027301106" type="unknown" color="51,128,255" fill="0" layer="-1.00" shape="9272.894257,2489.247852 9274.842427,2484.542637 9274.792277,2475.373905 9274.023506,2475.390711 9271.934324,2472.028227 9261.067353,2454.558929 9242.549411,2424.789955"/>
    <poly id="1027301107" type="unknown" color="51,128,255" fill="0" layer="-1.00" shape="9272.894257,2489.247852 9258.078205,2494.545236 9235.169659,2504.138249 9223.187232,2509.240520 9207.740428,2518.437314 9198.151916,2524.664027 9189.043254,2531.002374 9179.165875,2540.188427 9171.739114,2547.433633 9165.255430,2554.547202 9158.333189,2563.435509 9153.169932,2571.097481 9149.298102,2578.387058"/>
    <poly id="1027301108" type="unknown" color="51,128,255" fill="0" layer="-1.00" shape="9149.298102,2578.387058 9177.582817,2600.382068 9198.500989,2619.041309 9202.015726,2622.505814 9203.801074,2625.719506 9205.329526,2630.526329 9211.253790,2654.831156 9214.304395,2666.987186 9216.114037,2678.992733 9231.927013,2678.469297 9245.703108,2676.569439 9252.766211,2677.358625 9274.519931,2671.576487 9301.333518,2669.980076 9306.511983,2659.775626 9308.535623,2660.142147 9312.163800,2671.630592 9313.289966,2682.707465 9310.521931,2688.729469 9307.822437,2698.291351 9309.536375,2705.925016 9311.544715,2711.254237 9310.716871,2722.318315"/>
    <poly id="1033703049" type="unknown" color="51,128,255" fill="0" layer="-1.00" shape="8800.079503,401.890549 8798.511584,405.399658 8793.566146,409.737650 8777.186371,406.788214 8774.604635,403.980587 8774.081405,401.893868 8774.971518,396.912003"/>
    <poly id="1033703051" type="unknown" color="51,128,255" fill="0" layer="-1.00" shape="9009.284843,450.386949 9077.759586,463.132263"/>
    <poly id="1033703052" type="unknown" color="51,128,255" fill="0" layer="-1.00" shape="9009.284843,450.386949 9003.821153,442.358010 9000.000906,433.460506 8998.788538,424.528145 9014.057696,350.447010 9017.153136,335.914077"/>
    <poly id="1033703053" type="unknown" color="51,128,255" fill="1" layer="-1.00" shape="8986.137611,361.226828 9004.097464,364.452947 8995.276279,413.137174 8977.316526,409.911078 8986.137611,361.226828"/>
    <poly id="1033703054" type="unknown" color="51,128,255" fill="1" layer="-1.00" shape="8791.594193,331.015798 8810.670808,334.350264 8796.961105,404.456688 8794.440823,406.876510 8779.526959,404.239105 8777.508447,402.518187 8791.594193,331.015798"/>
    <poly id="1033703064" type="unknown" color="51,128,255" fill="0" layer="-1.00" shape="8972.638395,441.419516 8981.469640,439.272405 8988.483875,434.911464 8993.954223,429.907120 8998.788538,424.528145"/>
    <poly id="1033703065" type="unknown" color="51,128,255" fill="0" layer="-1.00" shape="8496.488220,265.036653 8455.412591,279.970231 8452.147295,281.884737 8448.815895,286.831408 8441.319665,322.010088 8441.826859,331.823796 8445.190665,337.622675 8451.133164,342.054985 8698.528455,387.008108 8747.832773,393.288000 8755.005739,392.542465 8759.799191,389.340131 8761.253186,384.667854 8768.486798,325.738104 8767.808881,321.434476 8766.402430,318.590002 8763.638766,316.763294"/>
    <poly id="1033703066" type="unknown" color="51,128,255" fill="0" layer="-1.00" shape="8838.186360,430.685816 8874.719551,423.968756"/>
    <poly id="1034968256" type="unknown" color="51,128,255" fill="0" layer="-1.00" shape="7391.901163,1279.651417 7350.648605,1334.716039 7345.865549,1337.941227 7341.041080,1339.291160 7335.722739,1339.097776 7331.154670,1337.644443 7317.395921,1327.213077 7296.362375,1311.280609"/>
    <poly id="1038687252" type="unknown" color="51,128,255" fill="0" layer="-1.00" shape="9039.111158,641.556743 9034.985795,643.767374"/>
    <poly id="1038687253" type="unknown" color="51,128,255" fill="1" layer="-1.00" shape="9034.983533,640.026228 9035.480227,640.903479 9035.643489,641.899040 9035.479487,642.890659 9034.985795,643.767374 9034.230933,644.427774 9033.292991,644.803541 9032.286141,644.858873 9031.360636,644.590482 9031.001273,644.331909 9030.570475,644.041594 9029.996420,643.265948 9029.693442,642.351154 9029.699080,641.396304 9030.015276,640.490167 9030.599780,639.722480 9031.401504,639.183171 9032.333278,638.929655 9033.298364,638.986252 9034.235137,639.365411 9034.983533,640.026228"/>
    <poly id="1038687254" type="unknown" color="51,128,255" fill="0" layer="-1.00" shape="9028.410892,644.355276 9029.699080,641.396304"/>
    <poly id="1038687255" type="unknown" color="51,128,255" fill="0" layer="-1.00" shape="9029.059380,638.024350 9032.333278,638.929655"/>
    <poly id="1038687256" type="unknown" color="51,128,255" fill="0" layer="-1.00" shape="9031.001273,644.331909 9028.410892,644.355276"/>
    <poly id="1038687257" type="unknown" color="51,128,255" fill="0" layer="-1.00" shape="9034.983533,640.026228 9039.111158,641.556743"/>
    <poly id="1038687258" type="unknown" color="51,128,255" fill="0" layer="-1.00" shape="9029.699080,641.396304 9029.059380,638.024350"/>
    <poly id="1054064866" type="unknown" color="51,128,255" fill="0" layer="-1.00" shape="6107.241165,852.478720 6008.509407,881.351612 5975.976537,890.856758 5963.272687,894.569820 5958.475881,895.975444 5953.608616,897.393740 5892.523433,915.261349"/>
    <poly id="1054064867" type="unknown" color="51,128,255" fill="0" layer="-1.00" shape="6205.542933,823.727612 6120.525006,848.597569 6107.241165,852.478720"/>
    <poly id="1059244005" type="unknown" color="51,128,255" fill="0" layer="-1.00" shape="6091.241317,540.876468 6153.317095,573.412420 6201.372003,590.629119 6239.076970,599.327848 6275.541723,604.745982 6310.152567,607.518830 6450.548821,616.570016 6467.321263,617.652209 6510.269386,620.363036 6609.132359,625.531188 6657.951036,626.602805 6722.319679,622.278928 6754.770707,617.785473 6800.861652,604.297481"/>
    <poly id="1061771099" type="unknown" color="51,128,255" fill="1" layer="-1.00" shape="6610.097209,936.289859 6582.513929,986.381604 6769.996416,1125.482192 6797.141796,1085.536609 6802.691725,1081.006325 6610.097209,936.289859"/>
    <poly id="1061771100" type="unknown" color="51,128,255" fill="1" layer="-1.00" shape="7634.193629,362.043557 7684.603085,357.812962 7802.531590,564.079817 7767.628922,572.508699 7758.014851,574.829792 7720.975199,514.764833 7696.471458,479.047045 7634.193629,362.043557"/>
    <poly id="1061771101" type="unknown" color="51,128,255" fill="0" layer="-1.00" shape="7767.628922,572.508699 7766.765643,565.433812"/>
    <poly id="1061771102" type="unknown" color="51,128,255" fill="1" layer="-1.00" shape="6279.967094,1578.666360 6256.931971,1627.126409 6265.149223,1630.851642 6270.684622,1632.860190 6278.082049,1635.104917 6284.972778,1637.227687 6291.360717,1639.006377 6300.053859,1641.866239 6310.794784,1646.956475 6316.723796,1650.366226 6322.353527,1653.438475 6345.286740,1668.060768 6386.867481,1693.848141 6392.802833,1697.546446 6401.965889,1702.460893 6413.747663,1709.437637 6425.967374,1716.626710 6431.381718,1719.559487 6438.525316,1723.519647 6443.927090,1725.886525 6453.075278,1729.735591 6460.216905,1713.290893 6464.481721,1703.471154 6467.417469,1696.711676 6456.129317,1692.055258 6448.214879,1688.023378 6438.710351,1682.861122 6430.151414,1677.677886 6416.484843,1668.245076 6383.954077,1647.851869 6342.454548,1621.352186 6316.778629,1606.657591 6303.652585,1596.890998 6279.967094,1578.666360"/>
    <poly id="1061771103" type="unknown" color="51,128,255" fill="0" layer="-1.00" shape="6460.216905,1713.290893 6486.445182,1726.208472"/>
    <poly id="1064219147" type="unknown" color="51,128,255" fill="0" layer="-1.00" shape="7763.196240,1770.278386 7942.285152,1531.479658"/>
    <poly id="1064219148" type="unknown" color="51,128,255" fill="0" layer="-1.00" shape="7763.092680,1772.800730 7943.695245,1531.270990"/>
    <poly id="1064524185" type="unknown" color="51,128,255" fill="0" layer="-1.00" shape="7921.218108,703.400065 7856.238548,630.949697"/>
    <poly id="1064524186" type="unknown" color="51,128,255" fill="0" layer="-1.00" shape="7864.850278,622.866869 7925.429012,699.865894"/>
    <poly id="1090769165" type="unknown" color="51,128,255" fill="0" layer="-1.00" shape="7136.293057,1584.754564 7142.540275,1576.179180"/>
    <poly id="1090769166" type="unknown" color="51,128,255" fill="0" layer="-1.00" shape="7301.567602,1655.760063 7279.360911,1657.127731 7266.585199,1658.353666 7256.783143,1654.906730 7249.557961,1649.637699 7234.859993,1633.898460 7218.610406,1623.167071 7199.957904,1616.130164 7185.550714,1613.151459 7171.498230,1610.620103 7168.953774,1611.109320"/>
    <poly id="1090769167" type="unknown" color="51,128,255" fill="0" layer="-1.00" shape="7577.303755,1805.606021 7581.905984,1793.792296"/>
    <poly id="1090769191" type="unknown" color="51,128,255" fill="0" layer="-1.00" shape="7381.091421,1660.231544 7385.149011,1703.038608"/>
    <poly id="1090769192" type="unknown" color="51,128,255" fill="0" layer="-1.00" shape="7378.937286,1736.047691 7381.544143,1752.398321 7380.760040,1759.731607 7375.887849,1770.119311 7374.430558,1773.393169"/>
    <poly id="1090769193" type="unknown" color="51,128,255" fill="0" layer="-1.00" shape="7459.705900,1774.518844 7464.114141,1781.160217 7469.866832,1793.433739"/>
    <poly id="1090769194" type="unknown" color="51,128,255" fill="1" layer="-1.00" shape="7597.330770,1791.620273 7607.713271,1799.351111 7619.351948,1783.863001 7608.960604,1776.132343 7597.330770,1791.620273"/>
    <poly id="1090769195" type="unknown" color="51,128,255" fill="0" layer="-1.00" shape="7609.968643,1856.707774 7615.611792,1843.583322 7615.791123,1830.468369 7614.672794,1814.639942 7614.418711,1811.137438 7618.961517,1796.627357 7629.267833,1783.666510"/>
    <poly id="1090769202" type="unknown" color="51,128,255" fill="0" layer="-1.00" shape="7438.136890,1779.124804 7448.698454,1777.737071 7459.705900,1774.518844 7473.774201,1762.163048 7487.709348,1757.392621 7496.137918,1766.321023 7505.255086,1774.401614 7520.200973,1780.976986 7526.707908,1784.963197 7540.546562,1793.050654 7554.818165,1801.927895 7569.390885,1803.615775 7577.303755,1805.606021 7586.193799,1812.614848 7599.400343,1822.914460 7604.880680,1837.281173 7609.968643,1856.707774 7605.869479,1867.278110 7602.946209,1877.045397"/>
    <poly id="1090769203" type="unknown" color="51,128,255" fill="0" layer="-1.00" shape="7599.920924,1923.872108 7601.014798,1930.975211 7589.201161,1941.726837 7583.071383,1946.413725"/>
    <poly id="1090775553" type="unknown" color="51,128,255" fill="1" layer="-1.00" shape="7746.244136,2138.781007 7736.025438,2121.210393 7746.161301,2115.369554 7756.379983,2132.940180 7746.244136,2138.781007"/>
    <poly id="1090775554" type="unknown" color="51,128,255" fill="1" layer="-1.00" shape="6670.350238,2088.607051 6661.267948,2101.264521 6668.562137,2106.453803 6676.925381,2112.407607 6685.872607,2118.781439 6697.307071,2107.337443 6703.651636,2094.019095 6694.016121,2082.920083 6679.038111,2076.502320 6670.350238,2088.607051"/>
    <poly id="1090775555" type="unknown" color="51,128,255" fill="0" layer="-1.00" shape="6595.494331,2032.560494 6601.847444,2037.171104 6603.734967,2038.561358 6665.680901,2084.169991 6670.350238,2088.607051"/>
    <poly id="1090775556" type="unknown" color="51,128,255" fill="0" layer="-1.00" shape="6676.925381,2112.407607 6673.854015,2116.638837 6636.175132,2168.586509 6629.495837,2171.587771 6626.073102,2173.129102"/>
    <poly id="1090775557" type="unknown" color="51,128,255" fill="0" layer="-1.00" shape="6668.562137,2106.453803 6665.520462,2110.429038 6624.989297,2163.328142 6625.529600,2168.156497 6626.073102,2173.129102"/>
    <poly id="1090775558" type="unknown" color="51,128,255" fill="1" layer="-1.00" shape="6694.016121,2082.920083 6693.375205,2077.938534 6692.925827,2074.418161 6733.254878,2021.535028 6741.402391,2027.726816 6701.255283,2082.037992 6698.918652,2082.322926 6694.016121,2082.920083"/>
    <poly id="1090775559" type="unknown" color="51,128,255" fill="0" layer="-1.00" shape="6741.402391,2027.726816 6812.372803,2079.642075 6814.306534,2084.317445 6812.488463,2088.454242 6762.006731,2155.572296 6707.844953,2225.747545 6700.764657,2225.016372 6629.495837,2171.587771 6625.529600,2168.156497 6558.002342,2120.029800 6552.449823,2112.848072 6552.772517,2107.467692 6603.734967,2038.561358 6656.552808,1968.759425 6660.648691,1966.470476 6665.848258,1969.696799 6733.254878,2021.535028"/>
    <poly id="1090775560" type="unknown" color="51,128,255" fill="0" layer="-1.00" shape="6697.307071,2107.337443 6700.108967,2109.295835 6762.006731,2155.572296"/>
    <poly id="1098458247" type="unknown" color="51,128,255" fill="0" layer="-1.00" shape="9164.880797,2602.891322 9157.560872,2610.167513"/>
    <poly id="1098458248" type="unknown" color="51,128,255" fill="0" layer="-1.00" shape="9157.778660,2622.951676 9155.874049,2623.581722 9153.765386,2608.418798"/>
    <poly id="1098458249" type="unknown" color="51,128,255" fill="0" layer="-1.00" shape="9160.815385,2621.941616 9157.778660,2622.951676"/>
    <poly id="1098458250" type="unknown" color="51,128,255" fill="0" layer="-1.00" shape="9160.800932,2579.656322 9157.066988,2585.166639 9153.838128,2589.922108"/>
    <poly id="1098458251" type="unknown" color="51,128,255" fill="0" layer="-1.00" shape="9153.838128,2589.922108 9151.713280,2593.820813 9148.569829,2605.712680 9149.886973,2618.639316 9152.119787,2628.970371 9179.820386,2766.933323 9190.356425,2825.862752 9197.285700,2855.296684 9210.597468,2880.683292"/>
    <poly id="1099922720" type="unknown" color="51,128,255" fill="1" layer="-1.00" shape="8661.766624,977.048305 8648.128146,966.800898 8644.467014,971.621517 8639.989985,968.267114 8643.470383,963.672486 8631.836819,954.935355 8637.654759,947.258755 8667.404082,969.608816 8661.766624,977.048305"/>
    <poly id="1099922721" type="unknown" color="51,128,255" fill="1" layer="-1.00" shape="8631.836819,954.935355 8619.537288,945.668868 8618.745909,945.064538 8615.256920,949.670466 8611.022147,946.477288 8614.494431,941.916130 8601.601568,932.207517 8602.134200,931.496441 8601.495743,931.010875 8602.114566,930.197994 8600.298360,928.827934 8604.999213,922.630109 8619.321437,933.406432 8637.654759,947.258755 8631.836819,954.935355"/>
    <poly id="1102603612" type="unknown" color="51,128,255" fill="0" layer="-1.00" shape="7959.419529,1790.091136 7949.266672,1802.815033 7922.515226,1784.076183 7672.271546,1608.756135 7177.061225,2247.709237 6665.975769,1860.997387"/>
    <poly id="1103145038" type="unknown" color="51,128,255" fill="0" layer="-1.00" shape="7963.650749,1793.128634 7953.727169,1805.825274 8002.395234,1843.387450 8167.253077,1678.144046 7408.975717,1121.065379 7771.908884,631.519182 7851.000107,595.850878 8068.140778,276.865436 8064.834785,186.849131 8643.506777,190.918334 9196.753110,214.100565 9203.275484,214.735125 9246.097702,209.658564 9297.938058,193.161685 9303.340112,209.307308"/>
    <poly id="1103219397" type="unknown" color="51,128,255" fill="1" layer="-1.00" shape="7033.556601,2490.390942 7016.455344,2438.724820 7046.790748,2428.839087 7047.427974,2430.068372 7048.629023,2431.207469 7049.960898,2431.866299 7051.464839,2432.310390 7052.624395,2432.373545 7053.893917,2432.212232 7068.419070,2478.939671 7033.556601,2490.390942"/>
    <poly id="1103219398" type="unknown" color="51,128,255" fill="1" layer="-1.00" shape="7113.055589,2485.689982 7133.545779,2479.563787 7133.704844,2475.963331 7134.180550,2473.088582 7136.149630,2470.980120 7138.718858,2469.224739 7140.693826,2468.581567 7143.345279,2468.545126 7146.281951,2469.812372 7148.903202,2472.407693 7167.743242,2463.220721 7176.803926,2458.368758 7175.497607,2456.066298 7173.294129,2453.972407 7171.279160,2452.407226 7168.387402,2451.571942 7165.688326,2451.454005 7162.812518,2451.339977 7159.235671,2452.307213 7156.001491,2452.378740 7153.625203,2450.466302 7151.615139,2448.723391 7150.473762,2445.884408 7150.414372,2443.199121 7150.696666,2439.973397 7151.534680,2437.090636 7151.463511,2433.872730 7149.428654,2431.408761 7146.891579,2430.221487 7143.295091,2430.301032 7140.603860,2430.538182 7138.431782,2429.864616 7135.701037,2428.315275 7133.324737,2426.402843 7131.326444,2425.192555 7127.541440,2424.743397 7124.680348,2425.694815 7122.926038,2427.520987 7122.096868,2430.403556 7121.986653,2433.814202 7121.333971,2436.681766 7120.142504,2439.572349 7117.514604,2442.672333 7114.673647,2444.533646 7111.821400,2445.484874 7108.060214,2446.112059 7105.927657,2447.224994 7104.201095,2450.305044 7104.252644,2452.635252 7105.221233,2455.655679 7107.971859,2458.103805 7109.105149,2460.576607 7109.353065,2463.790604 7107.248497,2466.168509 7104.616684,2469.090959 7104.133132,2471.610631 7104.727393,2474.095358 7106.742371,2475.660523 7109.102954,2476.862789 7110.932363,2478.432060 7111.881310,2480.564789 7113.055589,2485.689982"/>