<?xml version="1.0"?>

<routes> <!-- The opening tag -->

   <!-- Vehicle types -->
   <vType id="passenger" length="5.0" width="2.0" maxSpeed="70.0" accel="2.6" decel="4.5" sigma="0.5"/>

   <!-- Routes + associated vehicles & flows -->
   <route id="trip-0" color="Orange" edges="473697304#0 473697304#1 634612712 219141477#0 219141477#1 219140634 623345124 623345122 97523839#0 97523839#1 97523839#2 97523839#3 97523839#4 204683969 453143060#0 453143060#1 204683958 456710498#0 456710498#1 344446701 456710475#0 456710475#1 344446720#0 344446720#1 344446720#2 393883136"/>
   <vehicle id="vehicle-0" type="passenger" color="Red" depart="0.0" route="trip-0"/>
   <vehicle id="vehicle-10" type="passenger" color="Red" depart="0.1" route="trip-0"/>
   <vehicle id="vehicle-4" type="passenger" color="Red" depart="0.14" route="trip-0"/>

   <route id="trip-1" color="Orange" edges="452567350#0 452567350#1 1307413158#0 1307413158#1 1307413158#2 1307413158#3 1307413158#4 1307413158#5 1307413158#6 1307413158#7 1307413158#8 1307413158#9 1307413158#10 1307413158#11 1307413158#12 1307413158#13 1307413158#14 1307413160#0 1307413160#1"/>
   <vehicle id="vehicle-1" type="passenger" color="Red" depart="0.01" route="trip-1"/>
   <vehicle id="vehicle-11" type="passenger" color="Red" depart="0.11" route="trip-1"/>
   <vehicle id="vehicle-5" type="passenger" color="Red" depart="0.15" route="trip-0"/>

   <route id="trip-2" color="Orange" edges="204683950 1312144135 1312144134#0 1312144134#1 1312144134#2 219135683 628737050#0 628737050#1 204683960#0 204683960#1 467051820 453143057#0 453143057#1 453143057#2 650930762 586054433#0 586054433#1 586054433#2 586054433#3 586054433#4 650930760#0 650930760#1 33803356#0 33803356#1 473697309#0 473697309#1"/>
   <vehicle id="vehicle-2" type="passenger" color="Red" depart="0.02" route="trip-2"/>
   <vehicle id="vehicle-12" type="passenger" color="Red" depart="0.12" route="trip-2"/>
   <vehicle id="vehicle-6" type="passenger" color="Red" depart="0.16" route="trip-0"/>
   <vehicle id="vehicle-9" type="passenger" color="Red" depart="0.3" route="trip-0"/>

   <route id="trip-3" color="Orange" edges="467004440 237393666 521568130#1 521568130#2 521568130#3 277524632 277524633 628737049#0 628737049#1 628737050#0 628737050#1 204683960#0 204683960#1 467051820 453143057#0 453143057#1 453143057#2 650930762 586054433#0 586054433#1 586054433#2 586054433#3 586054433#4 650930760#0 650930760#1 33803356#0 33803356#1 473697309#0 473697309#1"/>
   <vehicle id="vehicle-3" type="passenger" color="Red" depart="0.03" route="trip-3"/>
   <vehicle id="vehicle-13" type="passenger" color="Red" depart="0.13" route="trip-3"/>
   <vehicle id="vehicle-7" type="passenger" color="Red" depart="0.17" route="trip-0"/>
   <vehicle id="vehicle-8" type="passenger" color="Red" depart="0.27" route="trip-0"/>







   <!-- <route id="trip-4" color="Orange" edges="156201905#1 156201905#2 156201905#3 -156195817#4 -156195817#2 -34639891#4 -34639891#2 -3994822#2 -3994822#0 -1201151042#1 727263614#1 727263614#4 727263614#5 121381306#0 203792892#0 126355312#0"/>
   <vehicle id="vehicle-4" type="passenger" color="Red" depart="0.04" route="trip-4"/>
   <vehicle id="vehicle-14" type="passenger" color="Red" depart="0.14" route="trip-4"/>

   <route id="trip-5" color="Orange" edges="-41554114#0 -4315795#5 -4315795#4 -4315795#3 -4315795#2 -4315795#1 -4315795#0 -949386963#1 39020684#0 293529922#0 -159956816 -3552302#3 -3552302#2 -3552302#0 -4311882 299755621#1 299755621#2 299755621#3 670058037 686430349 -686430350 -712126725 -562883780 -484626175#1 -57018566#1 -173587172#3 -37281237#4 -37281237#3 -37281237#2 -22633672#1 388091412 -3445574#1 833466869 230199380#0 230199379#0 1252323503#0 1252323503#2 -191318878#5 -191318878#3 -191318878#1 -191318878#0 3445575#0 -571478237#3 -571478237#2 -571478237#1 -571478237#0 478179927 25665955#0 25665906#0 761691771#0 37354502#0 37354502#1 492761561#0 34639899 254347228 4264144#0 4264144#2 4264144#3 32846150 128539419#0 128539419#1 260638282 492761559 224523813 107483716#0 458390142#0 376277306#0 376277306#1 156201908#0 -156201908#1 57018804#0 765244218 -764877315#6 203794636#0 -156201902#2 -156201902#1 -156195815#2"/>
   <vehicle id="vehicle-5" type="passenger" color="Red" depart="0.05" route="trip-5"/>
   <vehicle id="vehicle-15" type="passenger" color="Red" depart="0.15" route="trip-5"/>

   <route id="trip-6" color="Orange" edges="203794616 -203794616 -40453202#1 156201905#1 156201905#2 156201905#3 -156195817#4 -156195817#2 -34639891#4 -34639891#2 -3994822#2 -3994822#0 -1201151042#1 727263614#1 727263614#4 727263614#5 121381306#0 180662477#0 34639888#0 34639888#1 39247869 43155285 121381313 121381302#0 -248853633 248853633"/>
   <vehicle id="vehicle-6" type="passenger" color="Red" depart="0.06" route="trip-6"/>
   <vehicle id="vehicle-16" type="passenger" color="Red" depart="0.16" route="trip-6"/>

   <route id="trip-7" color="Orange" edges="846213770#1 -846213770#1 -846213770#0 -4340891#5 -4340891#4 -4340891#3 387174307 177745464#0 177745464#1 -1241386176 1241386177 -1206296893 387174301#0 387174301#1 387174301#2 31753907#1 34639897#0 -121381303#4 -121381303#3 -121381303#2 -121381303#1 -121381303#0 4468503#0 4468503#2 3994825 248853632#0 248853632#3 121389308#0 121389308#2 3445490#0 1023250996 1149252658 229984482 39020137#0 761691770#0 3526941#0 3526941#2 3526941#3 3526941#6 3526941#8 24041618#1 24041617#0 24041617#1 24041617#2 203154877 3511574 20342193#0 20342193#2 22634256#0 822239565"/>
   <vehicle id="vehicle-7" type="passenger" color="Red" depart="0.07" route="trip-7"/>
   <vehicle id="vehicle-17" type="passenger" color="Red" depart="0.17" route="trip-7"/>

   <route id="trip-8" color="Orange" edges="436786748#0 -436786748#1 436786747#0 718083948#0 718083948#2 436786743 37283282#0 -250047661 3730254#0 3730254#2 3730254#3 3730254#4 250047659#0 -230108676 -230108677#3 -230108677#1 -816806804#1 -3730325#0 431578441#0 4002730#0 37281216#0 -686430348 -686430350 -712126725 -562883780 -484626175#1 -57018566#1 -173587172#3 -37281237#4 -37281237#3 -37281237#2 -22633672#1 388091412 -3445574#1 833466869 230199380#0 230199379#0 1252323503#0 3512366#1 309658474#0 309658474#1 309658474#4 728220846 372255096 3511572 729197255#0 24041617#2 203154877 33720055 189600038 203022642 203105136#0 202761563 33720382#0 289799816#0 289799816#2 4756798#0 4019479#0 4019479#1 4019479#2 107585047 24041785#2 -24041797#4 -24041797#3 -24041797#2 -24041797#1 -24041797#0 -405210810#5 -405210810#4 -405210810#2 3567398#0 3567398#1 1004031462 3567399#1 405210839#1 405210839#2 203117012#0 -24042967#6 -107801370#1"/>
   <vehicle id="vehicle-8" type="passenger" color="Red" depart="0.08" route="trip-8"/>
   <vehicle id="vehicle-18" type="passenger" color="Red" depart="0.18" route="trip-8"/>

   <route id="trip-9" color="Orange" edges="69323241#0 -69323241#0 4301893#1 -4319754#3 -4319754#2 -4319754#1 328876544#2 328876544#3 328876544#4 328876544#5 4293780#1 4293780#3 4296501#0 4296501#1 4296501#2 4296502#3 69590803#0 157254344#0 157254344#2 -37032049 157254344#6 1204946259#0 4002664#0 25683828#1 106759141 4067398 279444018#0 27429948 83535895#1 25691267#0 -25683723#1 25684204#0 25684204#2 -846213770#1 -846213770#0 -4340891#5 -4340891#4 -4340891#3 387174307 177745464#0 177745464#1 -1241386176 1241386177 -1206296893 387174301#0 -387174301#0"/>
   <vehicle id="vehicle-9" type="passenger" color="Red" depart="0.09" route="trip-9"/>
   <vehicle id="vehicle-19" type="passenger" color="Red" depart="0.19" route="trip-9"/> -->

</routes> <!-- The closing tag -->
